@<TRIPOS>MOLECULE
4YWY_PBD_0_70
 76 78 0 0 0
SMALL
USER_CHARGES
****
Templ: /scratch/knw423/ML, Score: 0.9483
@<TRIPOS>ATOM
      1 C1         22.5021  -25.4851   31.6138 C.3     1  UNL11       0.2800
      2 O1         21.1296  -25.8525   31.7656 O.3     1  UNL11      -0.3625
      3 C2         20.8443  -26.8043   32.6941 C.ar    1  UNL11       0.0825
      4 C3         21.8495  -27.3053   33.5048 C.ar    1  UNL11      -0.1500
      5 C4         21.5568  -28.2806   34.4482 C.ar    1  UNL11       0.1170
      6 N1         22.5734  -28.7924   35.2650 N.am    1  UNL11      -0.5470
      7 C5         22.5024  -30.0612   35.7140 C.2     1  UNL11       0.5000
      8 S1         21.5200  -30.4376   37.0646 S.2     1  UNL11      -0.3800
      9 N2         23.2047  -31.0337   35.0997 N.am    1  UNL11      -0.7301
     10 C6         23.9714  -31.9969   35.8938 C.3     1  UNL11       0.3001
     11 C7         23.0126  -32.8417   36.7354 C.3     1  UNL11       0.0000
     12 C8         23.5303  -34.2797   36.8088 C.3     1  UNL11       0.2556
     13 N3         22.9220  -35.0729   35.7379 N.ar    1  UNL11       0.0476
     14 C9         21.7131  -35.6736   35.7734 C.ar    1  UNL11       0.0365
     15 N4         21.5166  -36.2860   34.6379 N.ar    1  UNL11      -0.5653
     16 C10        22.5821  -36.0999   33.8447 C.ar    1  UNL11       0.0772
     17 C11        23.4702  -35.3386   34.5122 C.ar    1  UNL11      -0.3316
     18 C12        24.8114  -34.8718   34.0077 C.3     1  UNL11       0.1800
     19 C13        20.2554  -28.7446   34.5865 C.ar    1  UNL11      -0.1500
     20 C14        19.2514  -28.2405   33.7820 C.ar    1  UNL11      -0.1500
     21 C15        19.5411  -27.2712   32.8354 C.ar    1  UNL11       0.0825
     22 O2         18.5514  -26.7759   32.0437 O.3     1  UNL11      -0.3625
     23 C16        17.2310  -26.7590   32.5899 C.3     1  UNL11       0.2800
     24 C17        16.4089  -25.6668   31.9026 C.3     1  UNL11       0.0000
     25 C18        17.1136  -24.3186   32.0669 C.3     1  UNL11       0.5030
     26 N5         16.9336  -23.8364   33.4427 N.4     1  UNL11      -0.9590
     27 C19        16.9588  -24.9518   34.3992 C.3     1  UNL11       0.5030
     28 C20        16.6891  -24.4181   35.8082 C.3     1  UNL11       0.5030
     29 N6         17.7037  -23.4116   36.1504 N.4     1  UNL11      -0.9590
     30 C21        17.5236  -22.9293   37.5262 C.3     1  UNL11       0.5030
     31 C22        18.3373  -23.8027   38.4834 C.3     1  UNL11       0.5030
     32 N7         17.4873  -24.2223   39.6057 N.4     1  UNL11      -0.8530
     33 C23        17.6784  -22.2962   35.1939 C.3     1  UNL11       0.5030
     34 C24        17.9481  -22.8298   33.7849 C.3     1  UNL11       0.5030
     35 H          22.5885  -24.7331   30.8575 H       1  UNL11       0.0000
     36 H          23.0720  -26.3447   31.3288 H       1  UNL11       0.0000
     37 H          22.8736  -25.1023   32.5414 H       1  UNL11       0.0000
     38 H          22.8149  -26.9539   33.4075 H       1  UNL11       0.1500
     39 H          23.3396  -28.2253   35.5110 H       1  UNL11       0.3700
     40 H          23.2025  -31.0968   34.1172 H       1  UNL11       0.3700
     41 H          24.6444  -31.4718   36.5390 H       1  UNL11       0.0000
     42 H          24.5289  -32.6347   35.2401 H       1  UNL11       0.0000
     43 H          22.0419  -32.8346   36.2852 H       1  UNL11       0.0000
     44 H          22.9508  -32.4340   37.7227 H       1  UNL11       0.0000
     45 H          23.2728  -34.7035   37.7569 H       1  UNL11       0.0000
     46 H          24.5941  -34.2821   36.6942 H       1  UNL11       0.0000
     47 H          21.0538  -35.6520   36.5671 H       1  UNL11       0.1500
     48 H          22.7006  -36.4744   32.8904 H       1  UNL11       0.1500
     49 H          25.2909  -34.2831   34.7616 H       1  UNL11       0.0000
     50 H          24.6749  -34.2804   33.1265 H       1  UNL11       0.0000
     51 H          25.4207  -35.7205   33.7767 H       1  UNL11       0.0000
     52 H          20.0378  -29.4667   35.2909 H       1  UNL11       0.1500
     53 H          18.2847  -28.5864   33.8864 H       1  UNL11       0.1500
     54 H          17.2819  -26.5597   33.6399 H       1  UNL11       0.0000
     55 H          16.7664  -27.7094   32.4295 H       1  UNL11       0.0000
     56 H          15.4373  -25.6181   32.3482 H       1  UNL11       0.0000
     57 H          16.3128  -25.8945   30.8615 H       1  UNL11       0.0000
     58 H          16.6935  -23.6109   31.3831 H       1  UNL11       0.0000
     59 H          18.1576  -24.4348   31.8634 H       1  UNL11       0.0000
     60 H          16.0172  -23.3923   33.5011 H       1  UNL11       0.4500
     61 H          17.9192  -25.4228   34.3734 H       1  UNL11       0.0000
     62 H          16.2060  -25.6654   34.1367 H       1  UNL11       0.0000
     63 H          16.7347  -25.2243   36.5103 H       1  UNL11       0.0000
     64 H          15.7171  -23.9721   35.8419 H       1  UNL11       0.0000
     65 H          18.6201  -23.8558   36.0921 H       1  UNL11       0.4500
     66 H          16.4878  -22.9809   37.7895 H       1  UNL11       0.0000
     67 H          17.8592  -21.9157   37.5956 H       1  UNL11       0.0000
     68 H          19.1698  -23.2434   38.8562 H       1  UNL11       0.0000
     69 H          18.6929  -24.6671   37.9626 H       1  UNL11       0.0000
     70 H          17.1484  -23.3982   40.1021 H       1  UNL11       0.4500
     71 H          18.0297  -24.8045   40.2439 H       1  UNL11       0.4500
     72 H          16.6937  -24.7555   39.2503 H       1  UNL11       0.4500
     73 H          18.4322  -21.5836   35.4563 H       1  UNL11       0.0000
     74 H          16.7185  -21.8241   35.2201 H       1  UNL11       0.0000
     75 H          17.9023  -22.0236   33.0829 H       1  UNL11       0.0000
     76 H          18.9202  -23.2757   33.7511 H       1  UNL11       0.0000
@<TRIPOS>UNITY_ATOM_ATTR
26 1
charge 1
29 1
charge 1
32 1
charge 1
@<TRIPOS>BOND
     1     1     2    1
     2     2     3    1
     3     3    21   ar
     4     3     4   ar
     5     4     5   ar
     6     5     6    1
     7     5    19   ar
     8     6     7    1
     9     7     8    2
    10     7     9    1
    11     9    10    1
    12    10    11    1
    13    11    12    1
    14    12    13    1
    15    13    17   ar
    16    13    14   ar
    17    14    15   ar
    18    15    16   ar
    19    16    17   ar
    20    17    18    1
    21    19    20   ar
    22    20    21   ar
    23    21    22    1
    24    22    23    1
    25    23    24    1
    26    24    25    1
    27    25    26    1
    28    26    34    1
    29    26    27    1
    30    27    28    1
    31    28    29    1
    32    29    30    1
    33    29    33    1
    34    30    31    1
    35    31    32    1
    36    33    34    1
    37     1    35    1
    38     1    36    1
    39     1    37    1
    40     4    38    1
    41     6    39    1
    42     9    40    1
    43    10    41    1
    44    10    42    1
    45    11    43    1
    46    11    44    1
    47    12    45    1
    48    12    46    1
    49    14    47    1
    50    16    48    1
    51    18    49    1
    52    18    50    1
    53    18    51    1
    54    19    52    1
    55    20    53    1
    56    23    54    1
    57    23    55    1
    58    24    56    1
    59    24    57    1
    60    25    58    1
    61    25    59    1
    62    26    60    1
    63    27    61    1
    64    27    62    1
    65    28    63    1
    66    28    64    1
    67    29    65    1
    68    30    66    1
    69    30    67    1
    70    31    68    1
    71    31    69    1
    72    32    70    1
    73    32    71    1
    74    32    72    1
    75    33    73    1
    76    33    74    1
    77    34    75    1
    78    34    76    1
